35    

Au        0.000000     0.000000     0.000000 
Au       -1.446258    -0.857295     2.361965 
Au        1.466138    -0.822836     2.361965 
Au       -0.019903     1.682168     2.361169 
Au       -2.879051    -1.706502     4.717948 
Au        0.019873    -1.679581     4.723631 
Au       -1.465780     0.824757     4.722834 
Au        2.918623    -1.637904     4.717948 
Au        1.445856     0.859208     4.722834 
Au       -0.039622     3.348765     4.716363 
Au       -4.311606    -2.555566     7.073811 
Au       -1.412920    -2.528778     7.079604 
Au       -2.898563    -0.024470     7.078807 
Au        1.472368    -2.494639     7.079604 
Au       -0.000026     0.002227     7.084200 
Au       -1.485488     2.491265     7.078018 
Au        4.370866    -2.452835     7.073811 
Au        2.898341     0.044119     7.078807 
Au        1.426128     2.525715     7.078018 
Au       -0.059337     5.014992     7.071446 
Au       -5.744221    -3.404661     9.429784 
Au       -2.845475    -3.377852     9.435477 
Au       -4.331117    -0.873614     9.434680 
Au        0.039565    -3.343836     9.435587 
Au       -1.432818    -0.847060     9.440163 
Au       -2.918271     1.642048     9.434001 
Au        2.924601    -3.309581     9.435476 
Au        1.452460    -0.812921     9.440163 
Au        5.823170    -3.267796     9.429784 
Au       -0.019744     1.668744     9.439383 
Au       -1.505204     4.157582     9.433102 
Au        4.350575    -0.770892     9.434680 
Au        2.878603     1.710636     9.434001 
Au        1.406412     4.192032     9.433102 
Au       -0.079054     6.681390     9.426620 
