35    

Au       -0.574710    -4.341150    19.977360 
Au       -3.073480    -2.898640    19.977470 
Au        1.946930    -2.885240    19.977360 
Au       -8.078880     0.000000    19.971670 
Au       -0.566970    -1.442740    19.982840 
Au       -3.073480     2.898640    19.977470 
Au       -0.574710     4.341150    19.977360 
Au        1.939440    -5.784100    19.971670 
Au       -1.400000     0.000000    10.542940 
Au       -0.566970     1.442740    19.982840 
Au       -1.407590     2.898660    17.621750 
Au       -0.559130    -1.456300    12.904640 
Au       -3.065880     0.000000    19.982850 
Au       -5.572120     1.455910    19.977360 
Au        1.106610     4.341540    17.615960 
Au       -3.081540     0.000000    12.904640 
Au       -5.572120    -1.455910    19.977360 
Au        1.946930     2.885240    19.977360 
Au       -6.413110     0.000000    17.615970 
Au        1.939440     5.784100    19.971670 
Au        1.106610    -4.341540    17.615960 
Au       -1.399990     0.000000    17.627140 
Au       -3.906430    -1.455910    17.621750 
Au       -1.407590    -2.898650    17.621750 
Au        1.947050     0.000000    19.977470 
Au       -4.747510     0.000000    15.260360 
Au       -2.240550    -1.455920    15.266040 
Au        0.281190     0.000000    15.266040 
Au        1.114120    -1.442740    17.621750 
Au       -3.906430     1.455910    17.621750 
Au        0.273810    -2.899040    15.260360 
Au       -2.240550     1.455920    15.266040 
Au        1.114120     1.442750    17.621750 
Au       -0.559130     1.456300    12.904640 
Au        0.273810     2.899040    15.260360 
35    

Au       -0.574710    -4.341150    19.977360 
Au       -3.073480    -2.898640    19.977470 
Au        1.946930    -2.885240    19.977360 
Au       -8.078880     0.000000    19.971670 
Au       -0.566970    -1.442740    19.982840 
Au       -3.073480     2.898640    19.977470 
Au       -0.574710     4.341150    19.977360 
Au        1.939440    -5.784100    19.971670 
Au       -1.400000     0.000000    10.542940 
Au       -0.566970     1.442740    19.982840 
Au       -1.407590     2.898660    17.621750 
Au       -0.559130    -1.456300    12.904640 
Au       -3.065880     0.000000    19.982850 
Au       -5.572120     1.455910    19.977360 
Au        1.106610     4.341540    17.615960 
Au       -3.081540     0.000000    12.904640 
Au       -5.572120    -1.455910    19.977360 
Au        1.946930     2.885240    19.977360 
Au       -6.413110     0.000000    17.615970 
Au        1.939440     5.784100    19.971670 
Au        1.106610    -4.341540    17.615960 
Au       -1.399990     0.000000    17.627140 
Au       -3.906430    -1.455910    17.621750 
Au       -1.407590    -2.898650    17.621750 
Au        1.947050     0.000000    19.977470 
Au       -4.747510     0.000000    15.260360 
Au       -2.240550    -1.455920    15.266040 
Au        0.281190     0.000000    15.266040 
Au        1.114120    -1.442740    17.621750 
Au       -3.906430     1.455910    17.621750 
Au        0.273810    -2.899040    15.260360 
Au       -2.240550     1.455920    15.266040 
Au        1.114120     1.442750    17.621750 
Au       -0.559130     1.456300    12.904640 
Au        0.273810     2.899040    15.260360 
35    

Au       -0.574710    -4.341150    19.977360 
Au       -3.073480    -2.898640    19.977470 
Au        1.946930    -2.885240    19.977360 
Au       -8.078880     0.000000    19.971670 
Au       -0.566970    -1.442740    19.982840 
Au       -3.073480     2.898640    19.977470 
Au       -0.574710     4.341150    19.977360 
Au        1.939440    -5.784100    19.971670 
Au       -1.400000     0.000000    10.542940 
Au       -0.566970     1.442740    19.982840 
Au       -1.407590     2.898660    17.621750 
Au       -0.559130    -1.456300    12.904640 
Au       -3.065880     0.000000    19.982850 
Au       -5.572120     1.455910    19.977360 
Au        1.106610     4.341540    17.615960 
Au       -3.081540     0.000000    12.904640 
Au       -5.572120    -1.455910    19.977360 
Au        1.946930     2.885240    19.977360 
Au       -6.413110     0.000000    17.615970 
Au        1.939440     5.784100    19.971670 
Au        1.106610    -4.341540    17.615960 
Au       -1.399990     0.000000    17.627140 
Au       -3.906430    -1.455910    17.621750 
Au       -1.407590    -2.898650    17.621750 
Au        1.947050     0.000000    19.977470 
Au       -4.747510     0.000000    15.260360 
Au       -2.240550    -1.455920    15.266040 
Au        0.281190     0.000000    15.266040 
Au        1.114120    -1.442740    17.621750 
Au       -3.906430     1.455910    17.621750 
Au        0.273810    -2.899040    15.260360 
Au       -2.240550     1.455920    15.266040 
Au        1.114120     1.442750    17.621750 
Au       -0.559130     1.456300    12.904640 
Au        0.273810     2.899040    15.260360 
35    

Au       -0.574710    -4.341150    19.977360 
Au       -3.073480    -2.898640    19.977470 
Au        1.946930    -2.885240    19.977360 
Au       -8.078880     0.000000    19.971670 
Au       -0.566970    -1.442740    19.982840 
Au       -3.073480     2.898640    19.977470 
Au       -0.574710     4.341150    19.977360 
Au        1.939440    -5.784100    19.971670 
Au       -1.400000     0.000000    10.542940 
Au       -0.566970     1.442740    19.982840 
Au       -1.407590     2.898660    17.621750 
Au       -0.559130    -1.456300    12.904640 
Au       -3.065880     0.000000    19.982850 
Au       -5.572120     1.455910    19.977360 
Au        1.106610     4.341540    17.615960 
Au       -3.081540     0.000000    12.904640 
Au       -5.572120    -1.455910    19.977360 
Au        1.946930     2.885240    19.977360 
Au       -6.413110     0.000000    17.615970 
Au        1.939440     5.784100    19.971670 
Au        1.106610    -4.341540    17.615960 
Au       -1.399990     0.000000    17.627140 
Au       -3.906430    -1.455910    17.621750 
Au       -1.407590    -2.898650    17.621750 
Au        1.947050     0.000000    19.977470 
Au       -4.747510     0.000000    15.260360 
Au       -2.240550    -1.455920    15.266040 
Au        0.281190     0.000000    15.266040 
Au        1.114120    -1.442740    17.621750 
Au       -3.906430     1.455910    17.621750 
Au        0.273810    -2.899040    15.260360 
Au       -2.240550     1.455920    15.266040 
Au        1.114120     1.442750    17.621750 
Au       -0.559130     1.456300    12.904640 
Au        0.273810     2.899040    15.260360 
35    

Au       -0.574710    -4.341150    19.977360 
Au       -3.073480    -2.898640    19.977470 
Au        1.946930    -2.885240    19.977360 
Au       -8.078880     0.000000    19.971670 
Au       -0.566970    -1.442740    19.982840 
Au       -3.073480     2.898640    19.977470 
Au       -0.574710     4.341150    19.977360 
Au        1.939440    -5.784100    19.971670 
Au       -1.400000     0.000000    10.542940 
Au       -0.566970     1.442740    19.982840 
Au       -1.407590     2.898660    17.621750 
Au       -0.559130    -1.456300    12.904640 
Au       -3.065880     0.000000    19.982850 
Au       -5.572120     1.455910    19.977360 
Au        1.106610     4.341540    17.615960 
Au       -3.081540     0.000000    12.904640 
Au       -5.572120    -1.455910    19.977360 
Au        1.946930     2.885240    19.977360 
Au       -6.413110     0.000000    17.615970 
Au        1.939440     5.784100    19.971670 
Au        1.106610    -4.341540    17.615960 
Au       -1.399990     0.000000    17.627140 
Au       -3.906430    -1.455910    17.621750 
Au       -1.407590    -2.898650    17.621750 
Au        1.947050     0.000000    19.977470 
Au       -4.747510     0.000000    15.260360 
Au       -2.240550    -1.455920    15.266040 
Au        0.281190     0.000000    15.266040 
Au        1.114120    -1.442740    17.621750 
Au       -3.906430     1.455910    17.621750 
Au        0.273810    -2.899040    15.260360 
Au       -2.240550     1.455920    15.266040 
Au        1.114120     1.442750    17.621750 
Au       -0.559130     1.456300    12.904640 
Au        0.273810     2.899040    15.260360 
35    

Au       -0.574710    -4.341150    19.977360 
Au       -3.073480    -2.898640    19.977470 
Au        1.946930    -2.885240    19.977360 
Au       -8.078880     0.000000    19.971670 
Au       -0.566970    -1.442740    19.982840 
Au       -3.073480     2.898640    19.977470 
Au       -0.574710     4.341150    19.977360 
Au        1.939440    -5.784100    19.971670 
Au       -1.400000     0.000000    10.542940 
Au       -0.566970     1.442740    19.982840 
Au       -1.407590     2.898660    17.621750 
Au       -0.559130    -1.456300    12.904640 
Au       -3.065880     0.000000    19.982850 
Au       -5.572120     1.455910    19.977360 
Au        1.106610     4.341540    17.615960 
Au       -3.081540     0.000000    12.904640 
Au       -5.572120    -1.455910    19.977360 
Au        1.946930     2.885240    19.977360 
Au       -6.413110     0.000000    17.615970 
Au        1.939440     5.784100    19.971670 
Au        1.106610    -4.341540    17.615960 
Au       -1.399990     0.000000    17.627140 
Au       -3.906430    -1.455910    17.621750 
Au       -1.407590    -2.898650    17.621750 
Au        1.947050     0.000000    19.977470 
Au       -4.747510     0.000000    15.260360 
Au       -2.240550    -1.455920    15.266040 
Au        0.281190     0.000000    15.266040 
Au        1.114120    -1.442740    17.621750 
Au       -3.906430     1.455910    17.621750 
Au        0.273810    -2.899040    15.260360 
Au       -2.240550     1.455920    15.266040 
Au        1.114120     1.442750    17.621750 
Au       -0.559130     1.456300    12.904640 
Au        0.273810     2.899040    15.260360 
35    

Au       -0.574710    -4.341150    19.977360 
Au       -3.073480    -2.898640    19.977470 
Au        1.946930    -2.885240    19.977360 
Au       -8.078880     0.000000    19.971670 
Au       -0.566970    -1.442740    19.982840 
Au       -3.073480     2.898640    19.977470 
Au       -0.574710     4.341150    19.977360 
Au        1.939440    -5.784100    19.971670 
Au       -1.400000     0.000000    10.542940 
Au       -0.566970     1.442740    19.982840 
Au       -1.407590     2.898660    17.621750 
Au       -0.559130    -1.456300    12.904640 
Au       -3.065880     0.000000    19.982850 
Au       -5.572120     1.455910    19.977360 
Au        1.106610     4.341540    17.615960 
Au       -3.081540     0.000000    12.904640 
Au       -5.572120    -1.455910    19.977360 
Au        1.946930     2.885240    19.977360 
Au       -6.413110     0.000000    17.615970 
Au        1.939440     5.784100    19.971670 
Au        1.106610    -4.341540    17.615960 
Au       -1.399990     0.000000    17.627140 
Au       -3.906430    -1.455910    17.621750 
Au       -1.407590    -2.898650    17.621750 
Au        1.947050     0.000000    19.977470 
Au       -4.747510     0.000000    15.260360 
Au       -2.240550    -1.455920    15.266040 
Au        0.281190     0.000000    15.266040 
Au        1.114120    -1.442740    17.621750 
Au       -3.906430     1.455910    17.621750 
Au        0.273810    -2.899040    15.260360 
Au       -2.240550     1.455920    15.266040 
Au        1.114120     1.442750    17.621750 
Au       -0.559130     1.456300    12.904640 
Au        0.273810     2.899040    15.260360 
