35    

Au       -0.574710    -4.341150    19.977360 
Au       -3.073480    -2.898640    19.977470 
Au        1.946930    -2.885240    19.977360 
Au       -8.078880     0.000000    19.971670 
Au       -0.566970    -1.442740    19.982840 
Au       -3.073480     2.898640    19.977470 
Au       -0.574710     4.341150    19.977360 
Au        1.939440    -5.784100    19.971670 
Au       -1.400000     0.000000    10.542940 
Au       -0.566970     1.442740    19.982840 
Au       -1.407590     2.898660    17.621750 
Au       -0.559130    -1.456300    12.904640 
Au       -3.065880     0.000000    19.982850 
Au       -5.572120     1.455910    19.977360 
Au        1.106610     4.341540    17.615960 
Au       -3.081540     0.000000    12.904640 
Au       -5.572120    -1.455910    19.977360 
Au        1.946930     2.885240    19.977360 
Au       -6.413110     0.000000    17.615970 
Au        1.939440     5.784100    19.971670 
Au        1.106610    -4.341540    17.615960 
Au       -1.399990     0.000000    17.627140 
Au       -3.906430    -1.455910    17.621750 
Au       -1.407590    -2.898650    17.621750 
Au        1.947050     0.000000    19.977470 
Au       -4.747510     0.000000    15.260360 
Au       -2.240550    -1.455920    15.266040 
Au        0.281190     0.000000    15.266040 
Au        1.114120    -1.442740    17.621750 
Au       -3.906430     1.455910    17.621750 
Au        0.273810    -2.899040    15.260360 
Au       -2.240550     1.455920    15.266040 
Au        1.114120     1.442750    17.621750 
Au       -0.559130     1.456300    12.904640 
Au        0.273810     2.899040    15.260360 
35    

Au       -0.574710    -4.341150    19.977360 
Au       -3.073480    -2.898640    19.977470 
Au        1.946930    -2.885240    19.977360 
Au       -8.078880     0.000000    19.971670 
Au       -0.566970    -1.442740    19.982840 
Au       -3.073480     2.898640    19.977470 
Au       -0.574710     4.341150    19.977360 
Au        1.939440    -5.784100    19.971670 
Au       -1.400000     0.000000    10.542940 
Au       -0.566970     1.442740    19.982840 
Au       -1.407590     2.898660    17.621750 
Au       -0.559130    -1.456300    12.904640 
Au       -3.065880     0.000000    19.982850 
Au       -5.572120     1.455910    19.977360 
Au        1.106610     4.341540    17.615960 
Au       -3.081540     0.000000    12.904640 
Au       -5.572120    -1.455910    19.977360 
Au        1.946930     2.885240    19.977360 
Au       -6.413110     0.000000    17.615970 
Au        1.939440     5.784100    19.971670 
Au        1.106610    -4.341540    17.615960 
Au       -1.399990     0.000000    17.627140 
Au       -3.906430    -1.455910    17.621750 
Au       -1.407590    -2.898650    17.621750 
Au        1.947050     0.000000    19.977470 
Au       -4.747510     0.000000    15.260360 
Au       -2.240550    -1.455920    15.266040 
Au        0.281190     0.000000    15.266040 
Au        1.114120    -1.442740    17.621750 
Au       -3.906430     1.455910    17.621750 
Au        0.273810    -2.899040    15.260360 
Au       -2.240550     1.455920    15.266040 
Au        1.114120     1.442750    17.621750 
Au       -0.559130     1.456300    12.904640 
Au        0.273810     2.899040    15.260360 
35    

Au       -0.574710    -4.341150    19.977360 
Au       -3.073480    -2.898640    19.977470 
Au        1.946930    -2.885240    19.977360 
Au       -8.078880     0.000000    19.971670 
Au       -0.566970    -1.442740    19.982840 
Au       -3.073480     2.898640    19.977470 
Au       -0.574710     4.341150    19.977360 
Au        1.939440    -5.784100    19.971670 
Au       -1.400000     0.000000    10.542940 
Au       -0.566970     1.442740    19.982840 
Au       -1.407590     2.898660    17.621750 
Au       -0.559130    -1.456300    12.904640 
Au       -3.065880     0.000000    19.982850 
Au       -5.572120     1.455910    19.977360 
Au        1.106610     4.341540    17.615960 
Au       -3.081540     0.000000    12.904640 
Au       -5.572120    -1.455910    19.977360 
Au        1.946930     2.885240    19.977360 
Au       -6.413110     0.000000    17.615970 
Au        1.939440     5.784100    19.971670 
Au        1.106610    -4.341540    17.615960 
Au       -1.399990     0.000000    17.627140 
Au       -3.906430    -1.455910    17.621750 
Au       -1.407590    -2.898650    17.621750 
Au        1.947050     0.000000    19.977470 
Au       -4.747510     0.000000    15.260360 
Au       -2.240550    -1.455920    15.266040 
Au        0.281190     0.000000    15.266040 
Au        1.114120    -1.442740    17.621750 
Au       -3.906430     1.455910    17.621750 
Au        0.273810    -2.899040    15.260360 
Au       -2.240550     1.455920    15.266040 
Au        1.114120     1.442750    17.621750 
Au       -0.559130     1.456300    12.904640 
Au        0.273810     2.899040    15.260360 
35    

Au       -0.574710    -4.341150    19.977360 
Au       -3.073480    -2.898640    19.977470 
Au        1.946930    -2.885240    19.977360 
Au       -8.078880     0.000000    19.971670 
Au       -0.566970    -1.442740    19.982840 
Au       -3.073480     2.898640    19.977470 
Au       -0.574710     4.341150    19.977360 
Au        1.939440    -5.784100    19.971670 
Au       -1.400000     0.000000    10.542940 
Au       -0.566970     1.442740    19.982840 
Au       -1.407590     2.898660    17.621750 
Au       -0.559130    -1.456300    12.904640 
Au       -3.065880     0.000000    19.982850 
Au       -5.572120     1.455910    19.977360 
Au        1.106610     4.341540    17.615960 
Au       -3.081540     0.000000    12.904640 
Au       -5.572120    -1.455910    19.977360 
Au        1.946930     2.885240    19.977360 
Au       -6.413110     0.000000    17.615970 
Au        1.939440     5.784100    19.971670 
Au        1.106610    -4.341540    17.615960 
Au       -1.399990     0.000000    17.627140 
Au       -3.906430    -1.455910    17.621750 
Au       -1.407590    -2.898650    17.621750 
Au        1.947050     0.000000    19.977470 
Au       -4.747510     0.000000    15.260360 
Au       -2.240550    -1.455920    15.266040 
Au        0.281190     0.000000    15.266040 
Au        1.114120    -1.442740    17.621750 
Au       -3.906430     1.455910    17.621750 
Au        0.273810    -2.899040    15.260360 
Au       -2.240550     1.455920    15.266040 
Au        1.114120     1.442750    17.621750 
Au       -0.559130     1.456300    12.904640 
Au        0.273810     2.899040    15.260360 
35    

Au       -0.574710    -4.341150    19.977360 
Au       -3.073480    -2.898640    19.977470 
Au        1.946930    -2.885240    19.977360 
Au       -8.078880     0.000000    19.971670 
Au       -0.566970    -1.442740    19.982840 
Au       -3.073480     2.898640    19.977470 
Au       -0.574710     4.341150    19.977360 
Au        1.939440    -5.784100    19.971670 
Au       -1.400000     0.000000    10.542940 
Au       -0.566970     1.442740    19.982840 
Au       -1.407590     2.898660    17.621750 
Au       -0.559130    -1.456300    12.904640 
Au       -3.065880     0.000000    19.982850 
Au       -5.572120     1.455910    19.977360 
Au        1.106610     4.341540    17.615960 
Au       -3.081540     0.000000    12.904640 
Au       -5.572120    -1.455910    19.977360 
Au        1.946930     2.885240    19.977360 
Au       -6.413110     0.000000    17.615970 
Au        1.939440     5.784100    19.971670 
Au        1.106610    -4.341540    17.615960 
Au       -1.399990     0.000000    17.627140 
Au       -3.906430    -1.455910    17.621750 
Au       -1.407590    -2.898650    17.621750 
Au        1.947050     0.000000    19.977470 
Au       -4.747510     0.000000    15.260360 
Au       -2.240550    -1.455920    15.266040 
Au        0.281190     0.000000    15.266040 
Au        1.114120    -1.442740    17.621750 
Au       -3.906430     1.455910    17.621750 
Au        0.273810    -2.899040    15.260360 
Au       -2.240550     1.455920    15.266040 
Au        1.114120     1.442750    17.621750 
Au       -0.559130     1.456300    12.904640 
Au        0.273810     2.899040    15.260360 
35    

Au       -0.574710    -4.341150    19.977360 
Au       -3.073480    -2.898640    19.977470 
Au        1.946930    -2.885240    19.977360 
Au       -8.078880     0.000000    19.971670 
Au       -0.566970    -1.442740    19.982840 
Au       -3.073480     2.898640    19.977470 
Au       -0.574710     4.341150    19.977360 
Au        1.939440    -5.784100    19.971670 
Au       -1.400000     0.000000    10.542940 
Au       -0.566970     1.442740    19.982840 
Au       -1.407590     2.898660    17.621750 
Au       -0.559130    -1.456300    12.904640 
Au       -3.065880     0.000000    19.982850 
Au       -5.572120     1.455910    19.977360 
Au        1.106610     4.341540    17.615960 
Au       -3.081540     0.000000    12.904640 
Au       -5.572120    -1.455910    19.977360 
Au        1.946930     2.885240    19.977360 
Au       -6.413110     0.000000    17.615970 
Au        1.939440     5.784100    19.971670 
Au        1.106610    -4.341540    17.615960 
Au       -1.399990     0.000000    17.627140 
Au       -3.906430    -1.455910    17.621750 
Au       -1.407590    -2.898650    17.621750 
Au        1.947050     0.000000    19.977470 
Au       -4.747510     0.000000    15.260360 
Au       -2.240550    -1.455920    15.266040 
Au        0.281190     0.000000    15.266040 
Au        1.114120    -1.442740    17.621750 
Au       -3.906430     1.455910    17.621750 
Au        0.273810    -2.899040    15.260360 
Au       -2.240550     1.455920    15.266040 
Au        1.114120     1.442750    17.621750 
Au       -0.559130     1.456300    12.904640 
Au        0.273810     2.899040    15.260360 
35    

Au        0.000025    -0.002201    -7.077108 
Au       -1.446233    -0.859496    -4.715143 
Au        1.466163    -0.825036    -4.715143 
Au       -0.019878     1.679967    -4.715939 
Au       -2.879026    -1.708703    -2.359160 
Au        0.019898    -1.681782    -2.353478 
Au       -1.465755     0.822557    -2.354274 
Au        2.918648    -1.640105    -2.359160 
Au        1.445881     0.857007    -2.354274 
Au       -0.039597     3.346564    -2.360746 
Au       -4.311581    -2.557767    -0.003297 
Au       -1.412895    -2.530979     0.002495 
Au       -2.898538    -0.026670     0.001699 
Au        1.472393    -2.496840     0.002495 
Au       -0.000001     0.000026     0.007091 
Au       -1.485463     2.489064     0.000910 
Au        4.370891    -2.455036    -0.003297 
Au        2.898366     0.041919     0.001699 
Au        1.426153     2.523514     0.000910 
Au       -0.059312     5.012792    -0.005662 
Au       -5.744195    -3.406862     2.352676 
Au       -2.845450    -3.380053     2.358368 
Au       -4.331092    -0.875815     2.357572 
Au        0.039590    -3.346037     2.358478 
Au       -1.432793    -0.849261     2.363054 
Au       -2.918246     1.639847     2.356893 
Au        2.924626    -3.311781     2.358368 
Au        1.452485    -0.815122     2.363054 
Au        5.823195    -3.269997     2.352676 
Au       -0.019719     1.666543     2.362275 
Au       -1.505179     4.155381     2.355994 
Au        4.350601    -0.773093     2.357572 
Au        2.878628     1.708436     2.356893 
Au        1.406437     4.189831     2.355994 
Au       -0.079029     6.679189     2.349512 
